
#======================================================================
# CRYSTAL DATA
#----------------------------------------------------------------------
data_VESTA_phase_1

_chemical_name_common                  'Cs Ca Ge Pb Br                        '
_cell_length_a                         16.368080
_cell_length_b                         16.383841
_cell_length_c                         11.807815
_cell_angle_alpha                      90.000191
_cell_angle_beta                       90.000374
_cell_angle_gamma                      90.037552
_cell_volume                           3166.524757
_space_group_name_H-M_alt              'P 1'
_space_group_IT_number                 1

loop_
_space_group_symop_operation_xyz
   'x, y, z'

loop_
   _atom_site_label
   _atom_site_occupancy
   _atom_site_fract_x
   _atom_site_fract_y
   _atom_site_fract_z
   _atom_site_adp_type
   _atom_site_U_iso_or_equiv
   _atom_site_type_symbol
   Cs1        1.0    -0.004905     0.245433    -0.005908    Uiso  ? Cs
   Cs2        1.0     0.251920    -0.003106    -0.013283    Uiso  ? Cs
   Cs3        1.0    -0.004905     0.245424     0.505907    Uiso  ? Cs
   Cs4        1.0     0.251890    -0.003109     0.513285    Uiso  ? Cs
   Cs5        1.0     0.001034     0.753809    -0.014935    Uiso  ? Cs
   Cs6        1.0     0.243468     0.512916    -0.014318    Uiso  ? Cs
   Cs7        1.0     0.001036     0.753817     0.514934    Uiso  ? Cs
   Cs8        1.0     0.243466     0.512919     0.514317    Uiso  ? Cs
   Cs9        1.0     0.504551     0.249069    -0.006059    Uiso  ? Cs
   Cs10       1.0     0.750456    -0.004071    -0.009183    Uiso  ? Cs
   Cs11       1.0     0.504553     0.249091     0.506058    Uiso  ? Cs
   Cs12       1.0     0.750486    -0.004073     0.509183    Uiso  ? Cs
   Cs13       1.0     0.500440     0.751822    -0.015858    Uiso  ? Cs
   Cs14       1.0     0.748052     0.502803    -0.006625    Uiso  ? Cs
   Cs15       1.0     0.500436     0.751800     0.515861    Uiso  ? Cs
   Cs16       1.0     0.748054     0.502803     0.506624    Uiso  ? Cs
   Ca1        1.0    -0.000091     0.505077     0.749999    Uiso  ? Ca
   Ca2        1.0     0.749694     0.750358     0.249999    Uiso  ? Ca
   Ca3        1.0     0.749718     0.751286     0.749998    Uiso  ? Ca
   Ca4        1.0     0.498649     0.504519     0.750001    Uiso  ? Ca
   Ge1        1.0    -0.002093     0.000555     0.750081    Uiso  ? Ge
   Ge2        1.0     0.250222     0.760399     0.750019    Uiso  ? Ge
   Ge3        1.0     0.750313     0.250948     0.249994    Uiso  ? Ge
   Ge4        1.0     0.500689     0.001044     0.749805    Uiso  ? Ge
   Pb1        1.0     0.250001     0.251435     0.249999    Uiso  ? Pb
   Pb2        1.0    -0.004902     0.000537     0.250059    Uiso  ? Pb
   Pb3        1.0     0.250608     0.249670     0.749997    Uiso  ? Pb
   Pb4        1.0     0.250393     0.752043     0.250014    Uiso  ? Pb
   Pb5        1.0    -0.004505     0.500167     0.250000    Uiso  ? Pb
   Pb6        1.0     0.504065     0.001071     0.249847    Uiso  ? Pb
   Pb7        1.0     0.750879     0.250228     0.749995    Uiso  ? Pb
   Pb8        1.0     0.503335     0.500289     0.249998    Uiso  ? Pb
   Br1        1.0     0.410062     0.342024     0.249999    Uiso  ? Br
   Br2        1.0     0.345863     0.092999     0.250019    Uiso  ? Br
   Br3        1.0     0.248235     0.245347    -0.000799    Uiso  ? Br
   Br4        1.0    -0.001267    -0.002265    -0.010143    Uiso  ? Br
   Br5        1.0     0.090905     0.156716     0.249994    Uiso  ? Br
   Br6        1.0     0.155453     0.409620     0.249998    Uiso  ? Br
   Br7        1.0     0.394705     0.361492     0.750000    Uiso  ? Br
   Br8        1.0     0.371093     0.107061     0.749994    Uiso  ? Br
   Br9        1.0     0.248230     0.245350     0.500796    Uiso  ? Br
   Br10       1.0    -0.001271    -0.002265     0.509995    Uiso  ? Br
   Br11       1.0     0.107785     0.127395     0.750002    Uiso  ? Br
   Br12       1.0     0.137303     0.392646     0.750000    Uiso  ? Br
   Br13       1.0     0.409695     0.842993     0.250019    Uiso  ? Br
   Br14       1.0     0.344975     0.592295     0.249999    Uiso  ? Br
   Br15       1.0     0.249730     0.752871    -0.009227    Uiso  ? Br
   Br16       1.0    -0.003577     0.500067    -0.006127    Uiso  ? Br
   Br17       1.0     0.091201     0.656814     0.249997    Uiso  ? Br
   Br18       1.0     0.156326     0.908968     0.249988    Uiso  ? Br
   Br19       1.0     0.378087     0.863931     0.750004    Uiso  ? Br
   Br20       1.0     0.365186     0.616901     0.749999    Uiso  ? Br
   Br21       1.0     0.249727     0.752868     0.509185    Uiso  ? Br
   Br22       1.0    -0.003577     0.500068     0.506126    Uiso  ? Br
   Br23       1.0     0.114101     0.637744     0.750000    Uiso  ? Br
   Br24       1.0     0.138070     0.880294     0.750001    Uiso  ? Br
   Br25       1.0     0.895123     0.341410     0.249999    Uiso  ? Br
   Br26       1.0     0.841963     0.102111     0.249995    Uiso  ? Br
   Br27       1.0     0.750097     0.247998     0.007031    Uiso  ? Br
   Br28       1.0     0.501173    -0.001600    -0.009902    Uiso  ? Br
   Br29       1.0     0.604472     0.156549     0.250011    Uiso  ? Br
   Br30       1.0     0.659188     0.394362     0.250001    Uiso  ? Br
   Br31       1.0     0.893117     0.360740     0.749999    Uiso  ? Br
   Br32       1.0     0.870947     0.104229     0.750003    Uiso  ? Br
   Br33       1.0     0.750100     0.247999     0.492976    Uiso  ? Br
   Br34       1.0     0.501160    -0.001605     0.510266    Uiso  ? Br
   Br35       1.0     0.608624     0.125361     0.749995    Uiso  ? Br
   Br36       1.0     0.638463     0.390409     0.749999    Uiso  ? Br
   Br37       1.0     0.902343     0.840134     0.249994    Uiso  ? Br
   Br38       1.0     0.837660     0.597302     0.249999    Uiso  ? Br
   Br39       1.0     0.749903     0.751027    -0.001216    Uiso  ? Br
   Br40       1.0     0.503805     0.500306    -0.006037    Uiso  ? Br
   Br41       1.0     0.597498     0.660235     0.250000    Uiso  ? Br
   Br42       1.0     0.661547     0.903254     0.250013    Uiso  ? Br
   Br43       1.0     0.885217     0.864908     0.750001    Uiso  ? Br
   Br44       1.0     0.861660     0.614214     0.750001    Uiso  ? Br
   Br45       1.0     0.749905     0.751025     0.501213    Uiso  ? Br
   Br46       1.0     0.503804     0.500306     0.506037    Uiso  ? Br
   Br47       1.0     0.615712     0.636417     0.750000    Uiso  ? Br
   Br48       1.0     0.632466     0.884008     0.749995    Uiso  ? Br
