
#======================================================================
# CRYSTAL DATA
#----------------------------------------------------------------------
data_VESTA_phase_1

_chemical_name_common                  'Cs Ge Sr Br                           '
_cell_length_a                         16.460342
_cell_length_b                         16.192511
_cell_length_c                         11.592234
_cell_angle_alpha                      90.069550
_cell_angle_beta                       91.439339
_cell_angle_gamma                      89.722626
_cell_volume                           3088.714613
_space_group_name_H-M_alt              'P 1'
_space_group_IT_number                 1

loop_
_space_group_symop_operation_xyz
   'x, y, z'

loop_
   _atom_site_label
   _atom_site_occupancy
   _atom_site_fract_x
   _atom_site_fract_y
   _atom_site_fract_z
   _atom_site_adp_type
   _atom_site_U_iso_or_equiv
   _atom_site_type_symbol
   Cs1        1.0     0.054577    -0.000931     0.196339    Uiso  ? Cs
   Cs2        1.0     0.302590     0.250868     0.195634    Uiso  ? Cs
   Cs3        1.0     0.051896    -0.001459     0.701250    Uiso  ? Cs
   Cs4        1.0     0.301183     0.250800     0.697623    Uiso  ? Cs
   Cs5        1.0     0.056196     0.499412     0.192189    Uiso  ? Cs
   Cs6        1.0     0.299845     0.747343     0.198259    Uiso  ? Cs
   Cs7        1.0     0.053221     0.499558     0.702720    Uiso  ? Cs
   Cs8        1.0     0.297806     0.747196     0.696054    Uiso  ? Cs
   Cs9        1.0     0.551485     0.001013     0.203400    Uiso  ? Cs
   Cs10       1.0     0.807739     0.253564     0.200128    Uiso  ? Cs
   Cs11       1.0     0.552469     0.000672     0.688575    Uiso  ? Cs
   Cs12       1.0     0.807961     0.253533     0.695491    Uiso  ? Cs
   Cs13       1.0     0.553806     0.499810     0.197426    Uiso  ? Cs
   Cs14       1.0     0.806356     0.747430     0.196060    Uiso  ? Cs
   Cs15       1.0     0.555034     0.500656     0.695901    Uiso  ? Cs
   Cs16       1.0     0.805523     0.747866     0.700511    Uiso  ? Cs
   Ge1        1.0     0.313534     0.001173     0.433375    Uiso  ? Ge
   Ge2        1.0     0.066129     0.250899     0.435735    Uiso  ? Ge
   Ge3        1.0     0.308264     0.006245     0.933522    Uiso  ? Ge
   Ge4        1.0     0.062435     0.250473     0.935638    Uiso  ? Ge
   Ge5        1.0     0.314448     0.499144     0.433977    Uiso  ? Ge
   Ge6        1.0     0.065144     0.749437     0.436450    Uiso  ? Ge
   Ge7        1.0     0.304601     0.492054     0.933688    Uiso  ? Ge
   Ge8        1.0     0.065311     0.748688     0.936558    Uiso  ? Ge
   Ge9        1.0     0.814775     0.001620     0.448563    Uiso  ? Ge
   Ge10       1.0     0.564224     0.251451     0.433413    Uiso  ? Ge
   Ge11       1.0     0.559399     0.256812     0.933494    Uiso  ? Ge
   Ge12       1.0     0.815939     0.500026     0.436635    Uiso  ? Ge
   Ge13       1.0     0.562953     0.749809     0.446725    Uiso  ? Ge
   Ge14       1.0     0.816596     0.499685     0.936821    Uiso  ? Ge
   Sr1        1.0     0.806405     0.003858     0.948444    Uiso  ? Sr
   Sr2        1.0     0.549644     0.746782     0.946541    Uiso  ? Sr
   Br1        1.0     0.299457     0.001227     0.212344    Uiso  ? Br
   Br2        1.0     0.169754     0.368358     0.452093    Uiso  ? Br
   Br3        1.0     0.169216     0.131386     0.451307    Uiso  ? Br
   Br4        1.0     0.054453     0.251696     0.214488    Uiso  ? Br
   Br5        1.0     0.418316     0.118674     0.448611    Uiso  ? Br
   Br6        1.0     0.419037     0.380933     0.450393    Uiso  ? Br
   Br7        1.0     0.297224     0.002804     0.713312    Uiso  ? Br
   Br8        1.0     0.177843     0.373648     0.951080    Uiso  ? Br
   Br9        1.0     0.171554     0.128815     0.951791    Uiso  ? Br
   Br10       1.0     0.053068     0.250743     0.714954    Uiso  ? Br
   Br11       1.0     0.417123     0.118338     0.948552    Uiso  ? Br
   Br12       1.0     0.418898     0.376455     0.950423    Uiso  ? Br
   Br13       1.0     0.301507     0.498529     0.212763    Uiso  ? Br
   Br14       1.0     0.168711     0.867981     0.450730    Uiso  ? Br
   Br15       1.0     0.169398     0.630876     0.451801    Uiso  ? Br
   Br16       1.0     0.052599     0.748101     0.215033    Uiso  ? Br
   Br17       1.0     0.417786     0.617398     0.447681    Uiso  ? Br
   Br18       1.0     0.417601     0.882242     0.446172    Uiso  ? Br
   Br19       1.0     0.296656     0.495382     0.713222    Uiso  ? Br
   Br20       1.0     0.171068     0.865514     0.950392    Uiso  ? Br
   Br21       1.0     0.174427     0.625031     0.950755    Uiso  ? Br
   Br22       1.0     0.052431     0.747663     0.714683    Uiso  ? Br
   Br23       1.0     0.418157     0.618344     0.947057    Uiso  ? Br
   Br24       1.0     0.416220     0.879996     0.948611    Uiso  ? Br
   Br25       1.0     0.802239     0.004362     0.207751    Uiso  ? Br
   Br26       1.0     0.668946     0.368612     0.448793    Uiso  ? Br
   Br27       1.0     0.667836     0.132146     0.446899    Uiso  ? Br
   Br28       1.0     0.550091     0.251181     0.212348    Uiso  ? Br
   Br29       1.0     0.919313     0.118816     0.454979    Uiso  ? Br
   Br30       1.0     0.920030     0.381270     0.452905    Uiso  ? Br
   Br31       1.0     0.798554     0.004650     0.690428    Uiso  ? Br
   Br32       1.0     0.666479     0.369717     0.948764    Uiso  ? Br
   Br33       1.0     0.669344     0.133624     0.948942    Uiso  ? Br
   Br34       1.0     0.548331     0.252979     0.713133    Uiso  ? Br
   Br35       1.0     0.932551     0.135414     0.952889    Uiso  ? Br
   Br36       1.0     0.928215     0.378762     0.950908    Uiso  ? Br
   Br37       1.0     0.803628     0.498178     0.215105    Uiso  ? Br
   Br38       1.0     0.667148     0.867671     0.450348    Uiso  ? Br
   Br39       1.0     0.667899     0.631409     0.453611    Uiso  ? Br
   Br40       1.0     0.546700     0.749185     0.205840    Uiso  ? Br
   Br41       1.0     0.919030     0.618389     0.451050    Uiso  ? Br
   Br42       1.0     0.918309     0.881982     0.454844    Uiso  ? Br
   Br43       1.0     0.803653     0.498523     0.714815    Uiso  ? Br
   Br44       1.0     0.671425     0.881486     0.949008    Uiso  ? Br
   Br45       1.0     0.679521     0.619122     0.952220    Uiso  ? Br
   Br46       1.0     0.543704     0.750450     0.688499    Uiso  ? Br
   Br47       1.0     0.920811     0.616846     0.951202    Uiso  ? Br
   Br48       1.0     0.929855     0.869610     0.952533    Uiso  ? Br
