
#======================================================================
# CRYSTAL DATA
#----------------------------------------------------------------------
data_VESTA_phase_1

_chemical_name_common                  ' C  N  H Ca Sn  I                     '
_cell_length_a                         12.863872
_cell_length_b                         12.767588
_cell_length_c                         12.871495
_cell_angle_alpha                      87.405220
_cell_angle_beta                       95.149139
_cell_angle_gamma                      90.611847
_cell_volume                           2103.285725
_space_group_name_H-M_alt              'P 1'
_space_group_IT_number                 1

loop_
_space_group_symop_operation_xyz
   'x, y, z'

loop_
   _atom_site_label
   _atom_site_occupancy
   _atom_site_fract_x
   _atom_site_fract_y
   _atom_site_fract_z
   _atom_site_adp_type
   _atom_site_U_iso_or_equiv
   _atom_site_type_symbol
   C1         1.0     0.494454     0.460597     0.047696    Uiso  ? C
   C2         1.0     0.497939     0.460878     0.544921    Uiso  ? C
   C3         1.0     0.495645     0.961593     0.045625    Uiso  ? C
   C4         1.0     0.494003     0.961572     0.548452    Uiso  ? C
   C5         1.0     0.993035     0.461802     0.046394    Uiso  ? C
   C6         1.0     0.995083     0.461694     0.543038    Uiso  ? C
   C7         1.0     0.996334     0.961330     0.045948    Uiso  ? C
   C8         1.0     0.996234     0.961315     0.548773    Uiso  ? C
   N1         1.0     0.070457     0.404113     0.022344    Uiso  ? N
   N2         1.0     0.069972     0.398802     0.522859    Uiso  ? N
   N3         1.0     0.069230     0.893776     0.031233    Uiso  ? N
   N4         1.0     0.072717     0.899994     0.529192    Uiso  ? N
   N5         1.0     0.572222     0.404755     0.021456    Uiso  ? N
   N6         1.0     0.572311     0.397055     0.525472    Uiso  ? N
   N7         1.0     0.567950     0.895318     0.026196    Uiso  ? N
   N8         1.0     0.569563     0.900246     0.526596    Uiso  ? N
   N9         1.0     0.438286     0.436787     0.125824    Uiso  ? N
   N10        1.0     0.437334     0.446947     0.621244    Uiso  ? N
   N11        1.0     0.436240     0.951005     0.123286    Uiso  ? N
   N12        1.0     0.434659     0.944311     0.625355    Uiso  ? N
   N13        1.0     0.937162     0.442195     0.125591    Uiso  ? N
   N14        1.0     0.936282     0.447894     0.620860    Uiso  ? N
   N15        1.0     0.933381     0.952904     0.120724    Uiso  ? N
   N16        1.0     0.935031     0.944447     0.624166    Uiso  ? N
   H1         1.0     0.094945     0.337492     0.064033    Uiso  ? H
   H2         1.0     0.089381     0.331975     0.566561    Uiso  ? H
   H3         1.0     0.082527     0.827517     0.077549    Uiso  ? H
   H4         1.0     0.091452     0.832369     0.571673    Uiso  ? H
   H5         1.0     0.596792     0.336585     0.060327    Uiso  ? H
   H6         1.0     0.589637     0.329446     0.568639    Uiso  ? H
   H7         1.0     0.584545     0.828406     0.070727    Uiso  ? H
   H8         1.0     0.589440     0.832467     0.568482    Uiso  ? H
   H9         1.0     0.451705     0.371615     0.174531    Uiso  ? H
   H10        1.0     0.444525     0.383820     0.673151    Uiso  ? H
   H11        1.0     0.443090     0.888933     0.176449    Uiso  ? H
   H12        1.0     0.443825     0.880329     0.676221    Uiso  ? H
   H13        1.0     0.950024     0.378677     0.176512    Uiso  ? H
   H14        1.0     0.945078     0.385349     0.673345    Uiso  ? H
   H15        1.0     0.937479     0.891721     0.174933    Uiso  ? H
   H16        1.0     0.943088     0.880839     0.675564    Uiso  ? H
   H17        1.0     0.112739     0.415555     0.460594    Uiso  ? H
   H18        1.0     0.110826     0.425112     0.959479    Uiso  ? H
   H19        1.0     0.117739     0.919377     0.469258    Uiso  ? H
   H20        1.0     0.115788     0.906574     0.971250    Uiso  ? H
   H21        1.0     0.616620     0.413812     0.464344    Uiso  ? H
   H22        1.0     0.613317     0.428991     0.959997    Uiso  ? H
   H23        1.0     0.613416     0.920033     0.465895    Uiso  ? H
   H24        1.0     0.612095     0.910171     0.964605    Uiso  ? H
   H25        1.0     0.378720     0.484788     0.139783    Uiso  ? H
   H26        1.0     0.380894     0.500658     0.629808    Uiso  ? H
   H27        1.0     0.381198     0.006280     0.131733    Uiso  ? H
   H28        1.0     0.377196     0.996495     0.635364    Uiso  ? H
   H29        1.0     0.877952     0.491729     0.137248    Uiso  ? H
   H30        1.0     0.879218     0.500890     0.629848    Uiso  ? H
   H31        1.0     0.878100     0.008909     0.125699    Uiso  ? H
   H32        1.0     0.876964     0.996597     0.632381    Uiso  ? H
   H33        1.0     0.479447     0.032501     0.498615    Uiso  ? H
   H34        1.0     0.484084     0.030921     0.992993    Uiso  ? H
   H35        1.0     0.485500     0.531020     0.493563    Uiso  ? H
   H36        1.0     0.474866     0.532430     0.000831    Uiso  ? H
   H37        1.0     0.982592     0.031902     0.498184    Uiso  ? H
   H38        1.0     0.987611     0.029729     0.991721    Uiso  ? H
   H39        1.0     0.980637     0.531036     0.490967    Uiso  ? H
   H40        1.0     0.973630     0.531752     0.996548    Uiso  ? H
   Ca1        1.0     0.244453     0.188349     0.320016    Uiso  ? Ca
   Ca2        1.0     0.744881     0.186748     0.318706    Uiso  ? Ca
   Ca3        1.0     0.744703     0.687265     0.818116    Uiso  ? Ca
   Sn1        1.0     0.238599     0.193130     0.819988    Uiso  ? Sn
   Sn2        1.0     0.239844     0.689521     0.323294    Uiso  ? Sn
   Sn3        1.0     0.244398     0.692939     0.824412    Uiso  ? Sn
   Sn4        1.0     0.739471     0.187383     0.817934    Uiso  ? Sn
   Sn5        1.0     0.739902     0.687909     0.317596    Uiso  ? Sn
   I1         1.0     0.238525     0.435868     0.311819    Uiso  ? I
   I2         1.0     0.245879     0.432904     0.815475    Uiso  ? I
   I3         1.0     0.249821     0.940549     0.325279    Uiso  ? I
   I4         1.0     0.242398     0.932696     0.822089    Uiso  ? I
   I5         1.0     0.742570     0.434860     0.317362    Uiso  ? I
   I6         1.0     0.750805     0.439578     0.820722    Uiso  ? I
   I7         1.0     0.748084     0.938956     0.323231    Uiso  ? I
   I8         1.0     0.742951     0.935722     0.820039    Uiso  ? I
   I9         1.0     0.242456     0.174520     0.070521    Uiso  ? I
   I10        1.0     0.252864     0.175775     0.566692    Uiso  ? I
   I11        1.0     0.261119     0.673342     0.056687    Uiso  ? I
   I12        1.0     0.249574     0.671126     0.556639    Uiso  ? I
   I13        1.0     0.741106     0.174158     0.069320    Uiso  ? I
   I14        1.0     0.754363     0.174314     0.565984    Uiso  ? I
   I15        1.0     0.755278     0.674488     0.064804    Uiso  ? I
   I16        1.0     0.746387     0.673568     0.567728    Uiso  ? I
   I17        1.0     0.994078     0.195474     0.307488    Uiso  ? I
   I18        1.0     0.007250     0.197231     0.797612    Uiso  ? I
   I19        1.0     0.008344     0.700930     0.294429    Uiso  ? I
   I20        1.0     0.993991     0.697400     0.805944    Uiso  ? I
   I21        1.0     0.494712     0.195411     0.308971    Uiso  ? I
   I22        1.0     0.508228     0.197637     0.796154    Uiso  ? I
   I23        1.0     0.508339     0.697595     0.294156    Uiso  ? I
   I24        1.0     0.497892     0.696362     0.800942    Uiso  ? I
